% Generated by roxygen2 (4.0.2): do not edit by hand
\name{plot.ss}
\alias{plot.ss}
\title{Plot an MT3DMS ss object}
\usage{
\method{plot}{ss}(ss)
}
\description{
\code{plot.ss} plots an MT3DMS ss object.
}

