% Generated by roxygen2 (4.1.1): do not edit by hand
% Please edit documentation in R/plot.ss.R
\name{plot.ss}
\alias{plot.ss}
\title{Plot an MT3DMS ss object}
\usage{
\method{plot}{ss}(ss)
}
\arguments{
\item{ss}{ss object}
}
\description{
\code{plot.ss} plots an RMT3DMS ss object
}

