% Generated by roxygen2: do not edit by hand
% Please edit documentation in R/plot.R
\name{rmt_plot.ss}
\alias{rmt_plot.ss}
\title{Plot an MT3DMS ss object}
\usage{
\method{rmt_plot}{ss}(ss)
}
\arguments{
\item{ss}{ss object}
}
\description{
\code{rmt_plot.ss} plots an RMT3DMS ss object
}
