% Generated by roxygen2 (4.0.2): do not edit by hand
\name{run_mt3dms}
\alias{run_mt3dms}
\title{Run an MT3DMS model}
\usage{
run_mt3dms(file, mt3dms_executable = "mt3dms5b")
}
\arguments{
\item{file}{Path to name file; typically "*.nam"}
}
\description{
\code{run_mt3dms} runs an MT3DMS model.
}

