% Generated by roxygen2 (4.0.2): do not edit by hand
\name{write.adv}
\alias{write.adv}
\title{Write an MT3DMS file}
\usage{
write.adv(adv, file, IPRN = -1)
}
\description{
Write an MT3DMS file
}

