% Generated by roxygen2 (4.0.2): do not edit by hand
\name{write_rct}
\alias{write_rct}
\title{Write an MT3DMS file}
\usage{
write_rct(rct, file, btn, IPRN = -1)
}
\description{
Write an MT3DMS file
}

