% Generated by roxygen2 (4.0.2): do not edit by hand
\name{write.gcg}
\alias{write.gcg}
\title{Write an MT3DMS file}
\usage{
write.gcg(gcg, file, IPRN = -1)
}
\description{
Write an MT3DMS file
}

