% Generated by roxygen2 (4.0.2): do not edit by hand
\name{write_btn}
\alias{write_btn}
\title{Write an MT3DMS file}
\usage{
write_btn(btn, file, info = "No additional information provided", IPRN = -1)
}
\description{
Write an MT3DMS file
}

