% Generated by roxygen2 (4.0.2): do not edit by hand
\name{write.dsp}
\alias{write.dsp}
\title{Write an MT3DMS file}
\usage{
write.dsp(dsp, file, btn, IPRN = -1)
}
\description{
Write an MT3DMS file
}

