% Generated by roxygen2 (4.0.2): do not edit by hand
\name{write_ssm}
\alias{write_ssm}
\title{Write an MT3DMS file}
\usage{
write_ssm(ssm, file, btn, IPRN = -1)
}
\description{
Write an MT3DMS file
}

