% Generated by roxygen2 (4.0.2): do not edit by hand
\name{write_adv}
\alias{write_adv}
\title{Write an MT3DMS file}
\usage{
write_adv(adv, file, IPRN = -1)
}
\description{
Write an MT3DMS file
}

