Package: RMT3DMS
Type: Package
Title: Pre- and post-processing of MT3DMS & MT3D-USGS files
Version: 0.3.0.9999
Date: 2016-01-07
Authors@R: person("Bart", "Rogiers", role = c("aut", "cre"), email = "brogiers@sckcen.be")
Author: Bart Rogiers <brogiers@sckcen.be>
Maintainer: Bart Rogiers <brogiers@sckcen.be>
Description: The RMT3DMS package provides a set of tools for solute transport
    modelling with MT3DMS and MT3D-USGS.
License: GPL (>= 2)
Imports:
    ggplot2,
    readr,
    RMODFLOW,
    usethis,
    tibble,
    dplyr,
    stringr,
    purrr,
    magrittr,
    stars,
    fs,
    processx,
    tidyr,
    spectralscale,
    rui,
    lubridate
Remotes:
    rogiersbart/RMODFLOW@develop,
    rogiersbart/spectralscale,
    rogiersbart/rui
URL: https://github.com/rogiersbart/RMT3DMS
BugReports: https://github.com/rogiersbart/RMT3DMS/issues
Encoding: UTF-8
RoxygenNote: 7.1.1
