 LISTING FILE: rocky-mountain-arsenal.mls
                         UNIT  16

 OPENING rocky-mountain-arsenal.ftl
 FILE TYPE:FTL   UNIT  10

 OPENING rocky-mountain-arsenal.cnf
 FILE TYPE:DATA   UNIT  17

 OPENING rocky-mountain-arsenal.btn
 FILE TYPE:BTN   UNIT   1

 OPENING rocky_mountain_arsenal_Cl.ucn
 FILE TYPE:DATA(BINARY)   UNIT 201

 OPENING rocky_mountain_arsenal_Cl._mas
 FILE TYPE:DATA   UNIT 601

 OPENING rocky-mountain-arsenal.adv
 FILE TYPE:ADV   UNIT   2

 OPENING rocky-mountain-arsenal.dsp
 FILE TYPE:DSP   UNIT   3

 OPENING rocky-mountain-arsenal.ssm
 FILE TYPE:SSM   UNIT   4

 OPENING rocky-mountain-arsenal.gcg
 FILE TYPE:GCG   UNIT   9

                              +++++++++++++++++++++++++++++++++++++++++++++++++++++++++++++++++++++++
                              +                                                                     +
                              +                               MT3DMS                                +
                              +             A Modular 3D Multi-Species Transport Model              +
                              +    For Simulation of Advection, Dispersion and Chemical Reactions   +
                              +                of Contaminants in Groundwater Systems               +
                              +                                                                     +
                              +++++++++++++++++++++++++++++++++++++++++++++++++++++++++++++++++++++++

  ----- 
 | M T |                                                                                 
 | 3 D |                                                                                 
  ----- 
 THE TRANSPORT MODEL CONSISTS OF     1 LAYER(S)   54 ROW(S)   46 COLUMN(S)
 NUMBER OF STRESS PERIOD(S) FOR TRANSPORT SIMULATION =    1
 NUMBER OF ALL COMPONENTS INCLUDED IN SIMULATION =    1
 NUMBER OF MOBILE COMPONENTS INCLUDED IN SIMULATION =    1
 UNIT FOR TIME IS  sec;  UNIT FOR LENGTH IS    m;  UNIT FOR MASS IS    g
 OPTIONAL PACKAGES INCLUDED IN CURRENT SIMULATION:
  o ADV   ON UNIT  2
  o DSP   ON UNIT  3
  o SSM   ON UNIT  4
  o GCG   ON UNIT  9

 BTN5 -- BASIC TRANSPORT PACKAGE, VERSION 5, FEBRUARY 2010, INPUT READ FROM UNIT  1
      39944 ELEMENTS OF THE  X ARRAY USED BY THE BTN PACKAGE
       2485 ELEMENTS OF THE IX ARRAY USED BY THE BTN PACKAGE

 FMI5 -- FLOW MODEL INTERFACE PACKAGE, VERSION 5, FEBRUARY 2010, INPUT READ FROM UNIT 10
 FLOW MODEL IS STEADY-STATE

 ADV5 -- ADVECTION PACKAGE, VERSION 5, FEBRUARY 2010, INPUT READ FROM UNIT  2
 ADVECTION IS SOLVED WITH THE ULTIMATE SCHEME
 COURANT NUMBER ALLOWED IN SOLVING THE ADVECTION TERM =  1.00    
          0 ELEMENTS OF THE  X ARRAY USED BY THE ADV PACKAGE
          0 ELEMENTS OF THE IX ARRAY USED BY THE ADV PACKAGE

 DSP5 -- DISPERSION PACKAGE, VERSION 5, FEBRUARY 2010, INPUT READ FROM UNIT  3
      27326 ELEMENTS OF THE  X ARRAY USED BY THE DSP PACKAGE
          0 ELEMENTS OF THE IX ARRAY USED BY THE DSP PACKAGE

 SSM5 -- SINK & SOURCE MIXING PACKAGE, VERSION 5, FEBRUARY 2010, INPUT READ FROM UNIT  4
 HEADER LINE OF THE SSM PACKAGE INPUT FILE:
 # SSM: Sink and Source Mixing package file created on 2017-06-27 by ModelMuse version 3.9.0.0.                                                                                                          
 MAJOR STRESS COMPONENTS PRESENT IN THE FLOW MODEL:
  o WELL [WEL]
 MAXIMUM NUMBER OF POINT SINKS/SOURCES =     128
       1664 ELEMENTS OF THE  X ARRAY USED BY THE SSM PACKAGE
          0 ELEMENTS OF THE IX ARRAY BY THE SSM PACKAGE

 GCG5 -- GENERALIZED CONJUGATE GRADIENT SOLVER PACKAGE, VERSION 5, FEBRUARY 2010 INPUT READ FROM UNIT  9
 MAXIMUM OF    1 OUTER ITERATIONS
        AND  200 INNER ITERATIONS ALLOWED FOR CLOSURE
 THE PRECONDITIONING TYPE SELECTED IS MODIFIED INCOMPLETE CHOLESKY (MIC).
 DISPERSION CROSS TERMS LUMPED INTO RIGHT-HAND-SIDE
      54848 ELEMENTS OF THE  X ARRAY USED BY THE GCG PACKAGE
        600 ELEMENTS OF THE IX ARRAY USED BY THE GCG PACKAGE

 ..........................................
 ELEMENTS OF THE  X ARRAY USED =    123783
 ELEMENTS OF THE IX ARRAY USED =      3086
 ..........................................

 LAYER NUMBER  AQUIFER TYPE
 ------------  ------------
       1            0

                                   WIDTH ALONG ROWS (DELR)  READ ON UNIT  1 USING FREE FORMAT
                                   ----------------------------------------------------------

            1           2           3           4           5           6           7           8           9          10
           11          12          13          14          15          16          17          18          19          20
           21          22          23          24          25          26          27          28          29          30
           31          32          33          34          35          36          37          38          39          40
           41          42          43          44          45          46
 .............................................................................................................................
   1    99.85       99.85       99.85       99.85       99.85       99.85       99.85       99.85       99.85       99.85    
        99.85       99.85       99.85       99.85       99.85       99.85       99.85       99.85       99.85       99.85    
        99.85       99.85       99.85       99.85       99.85       99.85       99.85       99.85       99.85       99.85    
        99.85       99.85       99.85       99.85       99.85       99.85       99.85       99.85       99.85       99.85    
        99.85       99.85       99.85       99.85       99.85       99.85    

                                   WIDTH ALONG COLS (DELC)  READ ON UNIT  1 USING FREE FORMAT
                                   ----------------------------------------------------------

            1           2           3           4           5           6           7           8           9          10
           11          12          13          14          15          16          17          18          19          20
           21          22          23          24          25          26          27          28          29          30
           31          32          33          34          35          36          37          38          39          40
           41          42          43          44          45          46          47          48          49          50
           51          52          53          54
 .............................................................................................................................
   1    100.4       100.4       100.4       100.4       100.4       100.4       100.4       100.4       100.4       100.4    
        100.4       100.4       100.4       100.4       100.4       100.4       100.4       100.4       100.4       100.4    
        100.4       100.4       100.4       100.4       100.4       100.4       100.4       100.4       100.4       100.4    
        100.4       100.4       100.4       100.4       100.4       100.4       100.4       100.4       100.4       100.4    
        100.4       100.4       100.4       100.4       100.4       100.4       100.4       100.4       100.4       100.4    
        100.4       100.4       100.4       100.4    

                                   TOP ELEV. OF 1ST LAYER   READ ON UNIT  1 USING FREE FORMAT
                                   ----------------------------------------------------------

            1           2           3           4           5           6           7           8           9          10
           11          12          13          14          15          16          17          18          19          20
           21          22          23          24          25          26          27          28          29          30
           31          32          33          34          35          36          37          38          39          40
           41          42          43          44          45          46
 .............................................................................................................................
   1    70.75       70.71       70.67       70.63       70.60       70.57       70.53       70.50       70.47       70.44    
        70.42       70.39       70.37       70.34       70.32       70.30       70.29       70.27       70.26       70.25    
        70.24       70.23       70.22       70.22       70.22       70.22       70.22       70.22       70.23       70.24    
        70.25       70.27       70.28       70.30       70.33       70.35       70.38       70.41       70.44       70.48    
        70.52       70.56       70.61       70.66       70.71       70.76    
   2    69.37       69.34       69.31       69.28       69.26       69.23       69.21       69.19       69.16       69.14    
        69.13       69.11       69.09       69.08       69.06       69.05       69.04       69.03       69.03       69.02    
        69.02       69.02       69.02       69.02       69.03       69.03       69.04       69.05       69.07       69.08    
        69.10       69.12       69.14       69.17       69.20       69.23       69.26       69.30       69.34       69.38    
        69.42       69.47       69.52       69.58       69.63       69.70    
   3    67.99       67.97       67.95       67.93       67.91       67.90       67.88       67.87       67.86       67.85    
        67.84       67.84       67.83       67.82       67.82       67.82       67.82       67.82       67.82       67.82    
        67.82       67.83       67.84       67.84       67.86       67.87       67.88       67.90       67.92       67.94    
        67.96       67.98       68.01       68.04       68.07       68.11       68.15       68.19       68.23       68.27    
        68.32       68.37       68.43       68.49       68.56       68.63    
   4    66.62       66.60       66.58       66.57       66.56       66.55       66.55       66.55       66.56       66.56    
        66.56       66.57       66.57       66.58       66.58       66.59       66.60       66.60       66.61       66.62    
        66.63       66.64       66.66       66.67       66.69       66.71       66.72       66.75       66.77       66.79    
        66.82       66.85       66.88       66.91       66.95       66.98       67.02       67.07       67.11       67.16    
        67.22       67.28       67.34       67.41       67.49       67.59    
   5    65.25       65.22       65.21       65.20       65.20       65.21       65.22       65.23       65.25       65.26    
        65.28       65.30       65.31       65.33       65.34       65.36       65.38       65.39       65.41       65.42    
        65.44       65.46       65.48       65.50       65.52       65.54       65.56       65.59       65.61       65.64    
        65.67       65.70       65.74       65.77       65.81       65.85       65.90       65.95       66.00       66.05    
        66.11       66.18       66.25       66.33       66.43       66.54    
   6    63.88       63.83       63.84       63.84       63.84       63.85       63.88       63.90       63.93       63.96    
        63.99       64.02       64.05       64.08       64.10       64.13       64.15       64.17       64.20       64.22    
        64.24       64.27       64.29       64.32       64.34       64.37       64.39       64.42       64.45       64.48    
        64.52       64.55       64.59       64.63       64.67       64.72       64.77       64.82       64.88       64.94    
        65.01       65.09       65.17       65.27       65.38       65.48    
   7    62.50       62.45       62.47       62.47       62.48       62.50       62.53       62.57       62.61       62.65    
        62.70       62.74       62.78       62.81       62.85       62.89       62.92       62.95       62.98       63.01    
        63.04       63.07       63.10       63.13       63.16       63.19       63.22       63.25       63.28       63.32    
        63.36       63.40       63.44       63.48       63.53       63.58       63.64       63.70       63.77       63.84    
        63.92       64.01       64.11       64.22       64.35       64.42    
   8    61.13       61.08       61.07       61.11       61.12       61.14       61.18       61.22       61.28       61.33    
        61.39       61.45       61.50       61.55       61.59       61.64       61.68       61.72       61.76       61.79    
        61.83       61.86       61.90       61.93       61.97       62.00       62.04       62.07       62.11       62.15    
        62.19       62.24       62.29       62.34       62.39       62.45       62.51       62.58       62.66       62.74    
        62.83       62.93       63.05       63.17       63.31       63.37    
   9    59.75       59.72       59.68       59.75       59.76       59.78       59.82       59.88       59.94       60.01    
        60.08       60.15       60.21       60.27       60.33       60.38       60.43       60.48       60.53       60.57    
        60.61       60.65       60.69       60.73       60.77       60.81       60.85       60.89       60.94       60.98    
        61.03       61.08       61.13       61.19       61.25       61.32       61.39       61.47       61.56       61.65    
        61.76       61.87       62.00       62.14       62.26       62.33    
  10    58.39       58.35       58.30       58.34       58.40       58.43       58.47       58.53       58.60       58.68    
        58.76       58.84       58.92       58.99       59.06       59.12       59.18       59.24       59.29       59.34    
        59.39       59.44       59.48       59.53       59.57       59.62       59.66       59.71       59.76       59.81    
        59.86       59.92       59.98       60.05       60.12       60.19       60.28       60.37       60.46       60.57    
        60.69       60.82       60.96       61.12       61.20       61.29    
  11    57.04       56.99       56.93       56.94       57.05       57.08       57.12       57.18       57.26       57.35    
        57.44       57.53       57.62       57.70       57.78       57.86       57.92       57.99       58.05       58.11    
        58.16       58.21       58.27       58.32       58.37       58.42       58.47       58.53       58.58       58.64    
        58.70       58.77       58.83       58.91       58.99       59.07       59.17       59.27       59.38       59.50    
        59.64       59.78       59.93       60.09       60.14       60.25    
  12    55.71       55.63       55.57       55.54       55.65       55.73       55.77       55.83       55.91       56.01    
        56.11       56.22       56.32       56.41       56.50       56.59       56.66       56.74       56.81       56.87    
        56.93       56.99       57.05       57.11       57.17       57.22       57.28       57.34       57.41       57.47    
        57.54       57.61       57.69       57.78       57.87       57.96       58.07       58.18       58.31       58.44    
        58.59       58.75       58.91       59.04       59.08       59.21    
  13    54.39       54.27       54.21       54.16       54.23       54.39       54.43       54.49       54.57       54.67    
        54.78       54.90       55.01       55.12       55.22       55.31       55.40       55.48       55.56       55.63    
        55.70       55.77       55.84       55.90       55.96       56.03       56.10       56.16       56.23       56.31    
        56.39       56.47       56.56       56.65       56.75       56.86       56.98       57.11       57.25       57.40    
        57.56       57.72       57.88       57.99       58.03       58.17    
  14    53.08       52.91       52.85       52.79       52.82       52.99       53.09       53.15       53.23       53.33    
        53.45       53.58       53.70       53.82       53.93       54.04       54.14       54.23       54.31       54.39    
        54.47       54.55       54.62       54.69       54.76       54.84       54.91       54.99       55.07       55.15    
        55.24       55.33       55.43       55.53       55.65       55.77       55.90       56.04       56.19       56.36    
        56.53       56.70       56.86       56.94       57.00       57.14    
  15    51.77       51.55       51.50       51.43       51.42       51.56       51.77       51.82       51.90       52.00    
        52.12       52.26       52.39       52.52       52.65       52.76       52.87       52.97       53.07       53.16    
        53.24       53.33       53.41       53.49       53.57       53.65       53.73       53.82       53.90       54.00    
        54.09       54.20       54.31       54.42       54.55       54.68       54.83       54.99       55.15       55.33    
        55.51       55.67       55.83       55.88       55.98       56.11    
  16    50.48       50.18       50.15       50.08       50.04       50.13       50.37       50.50       50.57       50.67    
        50.80       50.94       51.08       51.23       51.36       51.49       51.61       51.72       51.82       51.92    
        52.02       52.11       52.20       52.29       52.37       52.46       52.56       52.65       52.75       52.85    
        52.96       53.07       53.19       53.32       53.46       53.61       53.77       53.94       54.12       54.31    
        54.49       54.64       54.79       54.82       54.96       55.09    
  17    49.19       48.82       48.80       48.73       48.68       48.72       48.94       49.19       49.25       49.35    
        49.48       49.62       49.78       49.93       50.08       50.21       50.34       50.46       50.58       50.69    
        50.79       50.89       50.99       51.09       51.19       51.29       51.39       51.49       51.60       51.71    
        51.83       51.96       52.09       52.23       52.39       52.55       52.72       52.90       53.10       53.30    
        53.46       53.63       53.74       53.77       53.96       54.08    
  18    47.90       47.46       47.46       47.39       47.32       47.33       47.50       47.81       47.95       48.04    
        48.16       48.31       48.47       48.63       48.79       48.94       49.08       49.21       49.34       49.46    
        49.57       49.68       49.79       49.90       50.00       50.11       50.22       50.34       50.46       50.58    
        50.71       50.85       51.00       51.15       51.32       51.49       51.68       51.88       52.09       52.28    
        52.43       52.61       52.69       52.73       52.96       53.07    
  19    46.62       46.10       46.11       46.05       45.98       45.96       46.07       46.37       46.65       46.74    
        46.85       47.00       47.17       47.34       47.51       47.67       47.82       47.97       48.10       48.23    
        48.35       48.47       48.59       48.71       48.83       48.95       49.07       49.19       49.32       49.46    
        49.60       49.75       49.91       50.08       50.26       50.45       50.65       50.86       51.08       51.26    
        51.40       51.58       51.64       51.70       51.96       52.07    
  20    45.35       44.74       44.77       44.71       44.64       44.60       44.66       44.92       45.29       45.45    
        45.56       45.70       45.87       46.05       46.23       46.41       46.57       46.72       46.87       47.01    
        47.14       47.27       47.40       47.53       47.66       47.79       47.92       48.06       48.20       48.35    
        48.50       48.67       48.84       49.02       49.22       49.42       49.63       49.86       50.07       50.23    
        50.39       50.54       50.59       50.68       50.97       51.09    
  21    44.07       43.42       43.43       43.38       43.31       43.26       43.28       43.48       43.85       44.17    
        44.27       44.41       44.58       44.77       44.96       45.14       45.32       45.49       45.64       45.79    
        45.94       46.08       46.22       46.36       46.50       46.64       46.78       46.93       47.08       47.24    
        47.41       47.59       47.78       47.97       48.18       48.40       48.63       48.86       49.05       49.20    
        49.38       49.50       49.55       49.68       49.98       50.14    
  22    42.81       42.11       42.09       42.06       41.98       41.92       41.92       42.05       42.40       42.83    
        43.00       43.13       43.30       43.49       43.69       43.89       44.07       44.25       44.42       44.58    
        44.74       44.89       45.04       45.19       45.34       45.49       45.65       45.81       45.98       46.15    
        46.33       46.52       46.72       46.93       47.15       47.39       47.63       47.86       48.03       48.17    
        48.37       48.46       48.51       48.69       48.99       49.21    
  23    41.54       40.82       40.76       40.73       40.66       40.59       40.57       40.65       40.94       41.40    
        41.74       41.87       42.03       42.22       42.42       42.63       42.83       43.02       43.21       43.38    
        43.55       43.71       43.87       44.03       44.19       44.36       44.53       44.70       44.88       45.07    
        45.26       45.47       45.68       45.90       46.14       46.38       46.63       46.85       47.00       47.15    
        47.34       47.42       47.48       47.72       48.01       48.30    
  24    40.28       39.54       39.42       39.41       39.35       39.27       39.24       39.28       39.51       39.94    
        40.43       40.62       40.77       40.96       41.17       41.39       41.60       41.80       42.00       42.18    
        42.36       42.54       42.71       42.88       43.06       43.23       43.41       43.60       43.79       43.99    
        44.20       44.42       44.65       44.89       45.13       45.39       45.65       45.83       45.96       46.16    
        46.32       46.39       46.47       46.77       47.04       47.41    
  25    39.03       38.28       38.09       38.10       38.04       37.96       37.91       37.93       38.09       38.48    
        39.01       39.38       39.52       39.71       39.92       40.15       40.37       40.59       40.79       40.99    
        41.18       41.37       41.56       41.74       41.93       42.12       42.31       42.51       42.71       42.93    
        43.15       43.38       43.62       43.88       44.14       44.41       44.64       44.80       44.93       45.15    
        45.29       45.36       45.46       45.82       46.08       46.54    
  26    37.78       37.03       36.76       36.79       36.73       36.66       36.60       36.60       36.70       37.03    
        37.55       38.09       38.29       38.47       38.68       38.91       39.15       39.38       39.60       39.81    
        40.01       40.21       40.41       40.61       40.81       41.01       41.21       41.43       41.65       41.87    
        42.11       42.36       42.61       42.88       43.15       43.43       43.62       43.77       43.92       44.14    
        44.26       44.33       44.48       44.87       45.12       45.68    
  27    36.53       35.78       35.44       35.48       35.44       35.37       35.30       35.29       35.35       35.61    
        36.09       36.69       37.07       37.24       37.45       37.69       37.94       38.18       38.41       38.63    
        38.85       39.07       39.28       39.49       39.70       39.91       40.13       40.36       40.59       40.83    
        41.08       41.34       41.61       41.89       42.17       42.43       42.60       42.73       42.93       43.13    
        43.24       43.32       43.50       43.94       44.18       44.84    
  28    35.28       34.54       34.12       34.18       34.15       34.08       34.01       33.99       34.02       34.21    
        34.64       35.24       35.82       36.04       36.24       36.48       36.73       36.98       37.23       37.47    
        37.70       37.92       38.15       38.37       38.60       38.82       39.06       39.29       39.54       39.80    
        40.06       40.33       40.62       40.91       41.20       41.42       41.57       41.70       41.94       42.11    
        42.22       42.32       42.55       43.01       43.25       44.00    
  29    34.04       33.31       32.80       32.88       32.86       32.80       32.74       32.70       32.72       32.84    
        33.21       33.79       34.44       34.84       35.04       35.27       35.53       35.80       36.06       36.31    
        36.55       36.79       37.03       37.27       37.50       37.75       37.99       38.24       38.50       38.77    
        39.05       39.34       39.63       39.94       40.22       40.40       40.54       40.68       40.94       41.10    
        41.21       41.33       41.62       42.08       42.32       43.18    
  30    32.79       32.08       31.49       31.59       31.59       31.53       31.47       31.42       31.43       31.52    
        31.81       32.34       33.01       33.62       33.85       34.08       34.34       34.62       34.89       35.16    
        35.42       35.67       35.92       36.17       36.42       36.68       36.94       37.20       37.48       37.76    
        38.05       38.35       38.66       38.97       39.22       39.38       39.50       39.71       39.94       40.09    
        40.21       40.35       40.70       41.17       41.41       42.36    
  31    31.56       30.86       30.21       30.31       30.32       30.27       30.21       30.16       30.16       30.22    
        30.44       30.91       31.56       32.27       32.69       32.91       33.17       33.45       33.74       34.02    
        34.29       34.56       34.82       35.09       35.35       35.62       35.89       36.17       36.46       36.76    
        37.06       37.38       37.70       38.00       38.20       38.35       38.47       38.73       38.94       39.09    
        39.22       39.40       39.80       40.26       40.52       41.56    
  32    30.32       29.64       28.96       29.03       29.05       29.02       28.96       28.91       28.90       28.95    
        29.10       29.51       30.12       30.86       31.50       31.75       32.01       32.29       32.59       32.88    
        33.17       33.45       33.73       34.01       34.29       34.57       34.86       35.15       35.46       35.77    
        36.08       36.41       36.74       37.01       37.18       37.31       37.45       37.75       37.95       38.10    
        38.24       38.45       38.92       39.37       39.64       40.76    
  33    29.09       28.42       27.73       27.76       27.80       27.78       27.73       27.68       27.66       27.70    
        27.81       28.14       28.71       29.43       30.18       30.61       30.86       31.15       31.45       31.76    
        32.06       32.36       32.65       32.94       33.24       33.53       33.84       34.14       34.46       34.78    
        35.11       35.45       35.78       36.00       36.16       36.28       36.49       36.76       36.96       37.11    
        37.28       37.53       38.04       38.48       38.77       39.97    
  34    27.86       27.21       26.52       26.50       26.56       26.54       26.50       26.46       26.44       26.46    
        26.56       26.81       27.31       28.01       28.80       29.46       29.73       30.01       30.33       30.65    
        30.96       31.27       31.58       31.89       32.20       32.51       32.82       33.15       33.47       33.81    
        34.15       34.50       34.80       34.99       35.13       35.25       35.53       35.78       35.97       36.14    
        36.33       36.63       37.17       37.61       37.91       39.19    
  35    26.63       26.01       25.32       25.24       25.32       25.32       25.29       25.25       25.23       25.25    
        25.33       25.52       25.96       26.61       27.40       28.18       28.62       28.89       29.21       29.54    
        29.87       30.20       30.52       30.84       31.16       31.49       31.82       32.16       32.50       32.85    
        33.20       33.56       33.80       33.97       34.10       34.24       34.56       34.80       35.00       35.19    
        35.40       35.75       36.31       36.76       37.08       38.41    
  36    25.40       24.81       24.13       24.00       24.10       24.11       24.09       24.06       24.04       24.06    
        24.13       24.27       24.64       25.24       26.00       26.83       27.50       27.79       28.11       28.45    
        28.79       29.13       29.47       29.81       30.14       30.48       30.83       31.18       31.53       31.90    
        32.26       32.59       32.79       32.95       33.07       33.28       33.59       33.83       34.04       34.25    
        34.49       34.89       35.46       35.91       36.26       37.64    
  37    24.18       23.61       22.96       22.77       22.89       22.92       22.91       22.89       22.87       22.89    
        22.95       23.08       23.36       23.91       24.63       25.46       26.26       26.71       27.02       27.36    
        27.72       28.08       28.43       28.78       29.13       29.49       29.85       30.21       30.58       30.95    
        31.32       31.60       31.78       31.92       32.04       32.34       32.63       32.87       33.10       33.33    
        33.60       34.06       34.63       35.09       35.45       36.87    
  38    22.95       22.41       21.79       21.55       21.69       21.74       21.74       21.73       21.72       21.74    