# Name File for MT3DMS created on 2017-06-27 by ModelMuse
LIST 16 rocky-mountain-arsenal.mls
FTL 10 rocky-mountain-arsenal.ftl
DATA 17 rocky-mountain-arsenal.cnf
BTN 1 rocky-mountain-arsenal.btn
DATA(BINARY) 201 rocky-mountain-arsenal.ucn
DATA 601 rocky-mountain-arsenal.mas
ADV 2 rocky-mountain-arsenal.adv
DSP 3 rocky-mountain-arsenal.dsp
SSM 4 rocky-mountain-arsenal.ssm
GCG 9 rocky-mountain-arsenal.gcg
